Assignment 1/Power-System-Analysis/Network_Data/Kundur_two_area_system.txt
//BEGIN MVA SYSTEM BASE DATA
    100 
//BEGIN BUS DATA,(BUS_NR, LABEL, Voltage magnitude[pu], Voltage angle [degree], BUSCODE [1: PQ, 2: PV, 3: ref] V_rated [kV)], V_min [pu], V_max [pu])
    1 , 'BUS1 ' , 1.03 , 0.00 , 3 ,  20.0 , 0.95 , 1.05 
    2 , 'BUS2 ' , 1.01 , 0.00 , 2 ,  20.0 , 0.95 , 1.05
    3 , 'BUS3 ' , 1.03 , 0.00 , 2 ,  20.0 , 0.95 , 1.05
    4 , 'BUS4 ' , 1.01 , 0.00 , 2 ,  20.0 , 0.95 , 1.05
    5 , 'BUS5 ' , 1.00 , 0.00 , 1 , 230.0 , 0.95 , 1.05
    6 , 'BUS6 ' , 1.00 , 0.00 , 1 , 230.0 , 0.95 , 1.05
    7 , 'BUS7 ' , 1.00 , 0.00 , 1 , 230.0 , 0.95 , 1.05
    8 , 'BUS8 ' , 1.00 , 0.00 , 1 , 230.0 , 0.95 , 1.05
    9 , 'BUS9 ' , 1.00 , 0.00 , 1 , 230.0 , 0.95 , 1.05
   10 , 'BUS10' , 1.00 , 0.00 , 1 , 230.0 , 0.95 , 1.05
   11 , 'BUS11' , 1.00 , 0.00 , 1 , 230.0 , 0.95 , 1.05
//BEGIN LOAD DATA (BUS_NR, P_load MW, Q_load MVAR)   //Add the shunts here...
  7 ,  967.000 ,   100.00
  7 ,    0.000 ,  -200.00
  9 , 1767.000 ,   100.00 
  9 ,    0.000 ,  -350.00 
//BEGIN GENERATOR DATA (BUS_NR, MVA_SIZE, P_GEN [MW], P_max [MW], Q_max [MVAr], Q_min [MVAr], X, X2, X0, Xn, GRND) // GRND: 1=grounded; 0:ungrounded
    1 , 900.0 ,  700.000 , 850 , 360 , -225 , 0.2 , 0.2 , 0.05 , 0.03 , 1      
    2 , 900.0 ,  700.000 , 850 , 360 , -225 , 0.2 , 0.2 , 0.05 , 0.03 , 1      
    3 , 900.0 ,  700.000 , 850 , 360 , -225 , 0.2 , 0.2 , 0.05 , 0.03 , 1      
    4 , 900.0 ,  700.000 , 850 , 360 , -225 , 0.2 , 0.2 , 0.05 , 0.03 , 1      
//BEGIN LINE DATA (FROM_BUS, TO_BUS, ID, R, X, B, MVA_rating, X2, X0) // All branch impedances and susceptances (lines and transformers) on system base	
    5 ,   6 , '1 ' , 0.00500 , 0.05000 , 0.02188 , 500 , 0.05000 , 0.10000 
    5 ,   6 , '2 ' , 0.00500 , 0.05000 , 0.02188 , 500 , 0.05000 , 0.10000
    6 ,   7 , '1 ' , 0.00200 , 0.02000 , 0.00875 , 750 , 0.02000 , 0.04000
    6 ,   7 , '2 ' , 0.00200 , 0.02000 , 0.00875 , 750 , 0.02000 , 0.04000
    7 ,   8 , '1 ' , 0.01100 , 0.11000 , 0.19250 , 450 , 0.22001 , 0.44002
    7 ,   8 , '2 ' , 0.01100 , 0.11000 , 0.19250 , 450 , 0.22001 , 0.44002
    8 ,   9 , '1 ' , 0.01100 , 0.11000 , 0.19250 , 450 , 0.22001 , 0.44002
    8 ,   9 , '2 ' , 0.01100 , 0.11000 , 0.19250 , 450 , 0.22001 , 0.44002    
    9 ,  10 , '1 ' , 0.00200 , 0.02000 , 0.00875 , 750 , 0.02000 , 0.04000
    9 ,  10 , '2 ' , 0.00200 , 0.02000 , 0.00875 , 750 , 0.02000 , 0.04000
    10,  11 , '1 ' , 0.00500 , 0.05000 , 0.02188 , 500 , 0.05000 , 0.10000
    10 , 11 , '2 ' , 0.00500 , 0.05000 , 0.02188 , 500 , 0.05000 , 0.10000
//BEGIN TRANSFORMER DATA (FROM_BUS, TO_BUS, ID, R, X, n, ANG1, MVA_rating, FROM_CON, TO_CON, X2, X0)	//Transformer connection: (FROM_CON, TO_CON): 1=Y, 2=Yg, 3=D  
  1 ,  5 ,  '1 ' , 0.0000 ,  0.03333 , 1.00000 ,  0.000 , 450 , 2 , 2 , 0.012 , 0.012 
  1 ,  5 ,  '2 ' , 0.0000 ,  0.03333 , 1.00000 ,  0.000 , 450 , 2 , 2 , 0.012 , 0.012  
  2 ,  6 ,  '1 ' , 0.0000 ,  0.03333 , 1.00000 ,  0.000 , 450 , 2 , 2 , 0.012 , 0.012 
  2 ,  6 ,  '2 ' , 0.0000 ,  0.03333 , 1.00000 ,  0.000 , 450 , 2 , 2 , 0.012 , 0.012 
  3 , 11 ,  '1 ' , 0.0000 ,  0.03333 , 1.00000 ,  0.000 , 450 , 2 , 2 , 0.012 , 0.012
  3 , 11 ,  '2 ' , 0.0000 ,  0.03333 , 1.00000 ,  0.000 , 450 , 2 , 2 , 0.012 , 0.012
  4 , 10 ,  '1 ' , 0.0000 ,  0.03333 , 1.00000 ,  0.000 , 450 , 2 , 2 , 0.012 , 0.012
  4 , 10 ,  '2 ' , 0.0000 ,  0.03333 , 1.00000 ,  0.000 , 450 , 2 , 2 , 0.012 , 0.012
